Circuit: * D:\Faculdade\Semestre8\Sistemas_Embarcados\Monitoramento_Bateria\LTSpice\Draft10.asc

WARNING: Less than two connections to node N003.  This node is used by L:U1:3.
Direct Newton iteration for .op point succeeded.

Date: Mon Oct 07 13:32:42 2019
Total elapsed time: 0.128 seconds.

tnom = 27
temp = 27
method = modified trap
totiter = 2117
traniter = 2082
tranpoints = 1042
accept = 1042
rejected = 0
matrix size = 68
fillins = 22
solver = Normal
Thread vector: 5.0/4.1[2] 1.8/1.8[1] 1.1/1.4[1] 0.2/1.8[1]  2592/500
Matrix Compiler1: 3.87 KB object code size  1.2/0.6/[0.3]
Matrix Compiler2: 5.43 KB object code size  0.6/1.3/[0.5]

